parallel/peak_load/60pc/TNB_DUMA_VLN.Txt

SYMMETRICAL COMPONENT VOLTAGES BY BUS (for 3-phase buses)

Bus               Mag:   V1 (kV)    p.u.     V2 (kV)   %V2/V1    V0 (kV)    %V0/V1

ppu_duma_33kv        18.99     0.9966  9.229E-009  4.861E-008 1.239E-009 6.528E-009
ppu_duma_11kv        6.152     0.9686  3.193E-009  5.19E-008 1.133E-010 1.841E-009
rpplngi2             6.215     0.9787  3.221E-009  5.183E-008 1.128E-010 1.814E-009
pdtjlnmasjid         6.263     0.9862  3.243E-009  5.178E-008 1.126E-010 1.797E-009
bella                6.296     0.9913  3.258E-009  5.174E-008 1.125E-010 1.787E-009
pstpdgn              6.312     0.9938  3.265E-009  5.173E-008 1.125E-010 1.783E-009
pamdra                6.16       0.97  3.197E-009  5.189E-008 1.131E-010 1.836E-009
duma4                6.188     0.9744  3.21E-009  5.187E-008 1.069E-010 1.727E-009
plsdra               6.249      0.984  3.238E-009  5.181E-008 1.103E-010 1.766E-009
ssu_uptwres_ir1      6.256     0.9851  3.241E-009  5.181E-008 1.106E-010 1.768E-009
atria_1              6.257     0.9852  3.24E-009  5.179E-008 1.12E-010 1.79E-009
hawker               6.274     0.9879  3.248E-009  5.177E-008 1.27E-010 2.025E-009
prmte                6.189     0.9746  3.21E-009  5.187E-008 1.153E-010 1.863E-009
prmta                6.197     0.9758  3.214E-009  5.186E-008 1.155E-010 1.864E-009
pmontb               6.206     0.9771  3.218E-009  5.185E-008 1.163E-010 1.875E-009
duma7                6.179     0.9729  3.199E-009  5.178E-008 1.227E-010 1.986E-009
haus                 6.241     0.9827  3.218E-009  5.156E-008 5.513E-010 8.834E-009
duma6                6.413       1.01  3.262E-009  5.086E-008 2.223E-009 3.467E-008
duma13               6.573      1.035  3.298E-009  5.017E-008 4.033E-009 6.136E-008
ssu_duma5_im2        6.592      1.038   3.3E-009  5.006E-008 4.055E-009 6.151E-008
plngi_b              6.197     0.9757  3.213E-009  5.185E-008 1.124E-010 1.814E-009
plngi_d              6.222     0.9797  3.224E-009  5.182E-008 1.12E-010 1.799E-009
pdtlitrak            6.342     0.9987  3.281E-009  5.173E-008 1.127E-010 1.777E-009
duma12                6.42      1.011  3.317E-009  5.166E-008 1.13E-010 1.76E-009
tmngh4               6.496      1.023  3.352E-009  5.16E-008 1.218E-010 1.875E-009
ssu_tmegah3_ir1      6.527      1.028  3.367E-009  5.158E-008 1.308E-010 2.003E-009
tmngh2               6.539       1.03  3.372E-009  5.157E-008 1.354E-010 2.07E-009
sprk9                6.283     0.9894  3.252E-009  5.176E-008 1.13E-010 1.798E-009
bomba                6.292     0.9907  3.256E-009  5.176E-008 1.124E-010 1.786E-009
sprk8                6.313      0.994  3.266E-009  5.173E-008 1.125E-010 1.782E-009
ssu_uptwres_im2      6.176     0.9725  3.204E-009  5.187E-008 1.086E-010 1.758E-009
maybank               6.22     0.9794  3.224E-009  5.183E-008 1.085E-010 1.744E-009
duma8                6.228     0.9807  3.228E-009  5.182E-008 1.077E-010 1.729E-009
ssu_dsarcntr_ir1     6.176     0.9724  3.204E-009  5.187E-008 1.128E-010 1.826E-009
duma9                6.274     0.9878  3.248E-009  5.177E-008 1.123E-010 1.79E-009
duma1                6.324     0.9957  3.27E-009  5.172E-008 1.121E-010 1.773E-009
elite                6.342     0.9986  3.279E-009  5.17E-008 1.121E-010 1.768E-009
duma10               6.252     0.9844  3.238E-009  5.179E-008 1.118E-010 1.788E-009
balaipolis           6.253     0.9846  3.238E-009  5.179E-008 1.118E-010 1.788E-009
ppu_duma_vcb1            0          0          0          0         0         0
